This namelist contains various input parameters for HYDRO runs

&RUN
tend=0.005
noutput=100
/

&MESH
nx=200
ny=1200
dx=0.005
boundary_left=1
boundary_right=1
boundary_down=1
boundary_up=1
/

&HYDRO
courant_factor=0.8
niter_riemann=10
/
