This namelist contains various input parameters for HYDRO runs

&RUN
tend=0.0000005
noutput=1
/

&MESH
nx=4800
ny=12800
dx=0.000208
boundary_left=1
boundary_right=1
boundary_down=1
boundary_up=1
/

&HYDRO
courant_factor=0.8
niter_riemann=10
/
