This namelist contains various input parameters for HYDRO runs

&RUN
tend=0.000001
noutput=1000
/

&MESH
nx=2400
ny=2400
dx=0.000416
boundary_left=1
boundary_right=1
boundary_down=1
boundary_up=1
/

&HYDRO
courant_factor=0.8
niter_riemann=10
/
