This namelist contains various input parameters for HYDRO runs

&RUN
tend=0.005
noutput=2
/

&MESH
nx=400
ny=1200
dx=0.0025
boundary_left=1
boundary_right=1
boundary_down=1
boundary_up=1
/

&HYDRO
courant_factor=0.8
niter_riemann=10
/
